ROMS/TOMS Framework: August 14, 2020
===================

Copyright (c) 2002-2020 The ROMS/TOMS Group
  Licensed under a MIT/X style license
  See License_ROMS.txt

svn: $HeadURL: https://www.myroms.org/svn/src/trunk/ROMS/Version $
svn: $LastChangedBy: arango $
svn: $LastChangedRevision: 1037 $
svn: $LastChangedDate: 2020-08-15 09:56:27 +0800 (Sat, 15 Aug 2020) $

